LAMMPS (20 Nov 2019)
# LAMMPS input file
# Created using atb2lammps
# https://github.com/simongravelle/atb2lammps

boundary p p p
units real
atom_style      full
bond_style      harmonic
angle_style     harmonic
dihedral_style  harmonic
improper_style  harmonic
pair_style      lj/cut/coul/long 14
kspace_style    pppm 0.0001
special_bonds lj 0.0 0.0 0.5 coul 0.0 0.0 1.0 angle yes dihedral yes
read_data data.lammps
  orthogonal box = (-10 -10 -10) to (10 10 10)
  reading atoms ...
  3 atoms
  scanning bonds ...
  scanning angles ...
  reading bonds ...
  2 bonds
  reading angles ...
  1 angles
include parm.lammps
# LAMMPS parameter file
# Created using atb2lammps
# https://github.com/simongravelle/atb2lammps

mass 1 15.9994
mass 2 12.011

pair_coeff 1 1 0.41229546 2.625854
pair_coeff 1 2 0.31783628 2.717064
pair_coeff 2 2 0.24501823 2.8114421

bond_coeff 1 1063.5756 1.17

angle_coeff 1 48.240032 180.0

minimize 1.0e-5 1.0e-7 1000 10000
PPPM initialization ...
  G vector (1/distance) = 0.163583
  grid = 5 5 5
  stencil order = 5
  estimated absolute RMS force accuracy = 0.00724965
  estimated relative force accuracy = 2.18321e-05
  3d grid and FFT values/proc = 1000 125
  update every 1 steps, delay 0 steps, check yes
Step Temp E_pair E_mol TotEng Press
0            0 -0.0010948123 0.0016315446 0.00053673223     12.45432
Loop time of 0.00159864 on 1 procs for 9 steps with 3 atoms

Minimization stats:
  Stopping criterion = energy tolerance
  Energy initial, next-to-last, final =
  Force two-norm initial, final = 2.6263 0.0226588
  Force max component initial, final = 1.86146 0.0171968
  Final line search alpha, max atom move = 0.125 0.0021496
  Iterations, force evaluations = 9 36

#replicate	3 1 1
reset_timestep 0
fix mymom all momentum 100 linear 1 1 1 angular
fix mynvt all nvt temp 600 600 100
timestep 1.0
fix	myrc all recenter  INIT INIT INIT
thermo 1000
run 50000#0
PPPM initialization ...
  G vector (1/distance) = 0.163583
  grid = 5 5 5
  stencil order = 5
  estimated absolute RMS force accuracy = 0.00724965
  estimated relative force accuracy = 2.18321e-05
  3d grid and FFT values/proc = 1000 125
Step Temp E_pair E_mol TotEng Press
0            0 -0.0010976219 1.8495677e-07 -0.0010974369  0.010673827
Averages over the last 26 of 51 rows, steps 25000 to 50000:
Temp E_pair E_mol TotEng Press
571.347 -0.00153104 3.64562 7.05025 23.5579
Loop time of 0.778566 on 1 procs for 50000 steps with 3 atoms

run 5000
PPPM initialization ...
  G vector (1/distance) = 0.163583
  grid = 5 5 5
  stencil order = 5
  estimated absolute RMS force accuracy = 0.00724965
  estimated relative force accuracy = 2.18321e-05
  3d grid and FFT values/proc = 1000 125
Step Temp E_pair E_mol TotEng Press
50000    565.38358 -0.0011930838    1.2918359    4.6612449     180.2058
Loop time of 0.0740276 on 1 procs for 5000 steps with 3 atoms

dump mydmp all atom 2 dump.lammpstrj

run 500
PPPM initialization ...
  G vector (1/distance) = 0.163583
  grid = 5 5 5
  stencil order = 5
  estimated absolute RMS force accuracy = 0.00724965
  estimated relative force accuracy = 2.18321e-05
  3d grid and FFT values/proc = 1000 125
Step Temp E_pair E_mol TotEng Press
55000    204.17967 -0.0012630611    1.1182848    2.3342634    -166.7415
Loop time of 0.0124017 on 1 procs for 500 steps with 3 atoms
